18

C    0.0000000    0.7266123   -0.5324933
C   -0.0000000   -0.7266123   -0.5324933
C    0.0000000    1.1253939   -1.8567943
C    0.0000000   -0.0000000   -2.6576484
C    0.0000000   -1.1253939   -1.8567943
C    0.0000000    1.6056034    0.5395804
C   -0.0000000   -1.6056034    0.5395804
C   -0.0000000    1.2661891    1.8892162
C   -0.0000000   -1.2661891    1.8892162
C   -0.0000000    0.0000000    2.4800818
H    0.0000000    2.1471734   -2.2147780
H    0.0000000   -0.0000000   -3.7394513
H    0.0000000   -2.1471734   -2.2147780
H    0.0000000    2.6655654    0.3111799
H   -0.0000000   -2.6655654    0.3111799
H   -0.0000000    2.1025005    2.5785232
H   -0.0000000   -2.1025005    2.5785232
H   -0.0000000    0.0000000    3.5639440
