12

H    0.0000000    2.1489398    1.2406910
C    0.0000000    1.2116068    0.6995215
C    0.0000000    1.2116068   -0.6995215
H    0.0000000    2.1489398   -1.2406910
C   -0.0000000   -0.0000000   -1.3990430
H   -0.0000000   -0.0000000   -2.4813820
C   -0.0000000   -1.2116068   -0.6995215
H   -0.0000000   -2.1489398   -1.2406910
C   -0.0000000   -1.2116068    0.6995215
H   -0.0000000   -2.1489398    1.2406910
C    0.0000000    0.0000000    1.3990430
H    0.0000000    0.0000000    2.4813820
