72

C    1.2375138   -0.7144789    0.0000000
C   -0.0000000   -1.4289578   -0.0000000
C    1.2375138    0.7144789    0.0000000
C   -1.2375138   -0.7144789   -0.0000000
C   -1.2375138    0.7144789   -0.0000000
C    0.0000000    1.4289578    0.0000000
C    2.5425425   -1.4679376    0.0000000
C    3.5466013   -1.1754214   -0.9469069
H    3.3908798   -0.4120628   -1.6979675
C    4.7555782   -1.8761769   -0.9448281
H    5.5159357   -1.6434956   -1.6789256
C    4.9835492   -2.8772535    0.0000000
H    5.9208187   -3.4183862    0.0000000
C    4.0026060   -3.1803631    0.9448281
H    4.1812768   -3.9551926    1.6789256
C    2.7912454   -2.4837361    0.9469069
H    2.0522967   -2.7305566    1.6979675
C    2.5425425    1.4679376    0.0000000
C    2.7912454    2.4837361   -0.9469069
H    2.0522967    2.7305566   -1.6979675
C    4.0026060    3.1803631   -0.9448281
H    4.1812768    3.9551926   -1.6789256
C    4.9835492    2.8772535    0.0000000
H    5.9208187    3.4183862    0.0000000
C    4.7555782    1.8761769    0.9448281
H    5.5159357    1.6434956    1.6789256
C    3.5466013    1.1754214    0.9469069
H    3.3908798    0.4120628    1.6979675
C    0.0000000    2.9358751    0.0000000
C    0.7553559    3.6591575    0.9469069
H    1.3385830    3.1426194    1.6979675
C    0.7529723    5.0565400    0.9448281
H    1.3346589    5.5986882    1.6789256
C    0.0000000    5.7545070    0.0000000
H    0.0000000    6.8367725    0.0000000
C   -0.7529723    5.0565400   -0.9448281
H   -1.3346589    5.5986882   -1.6789256
C   -0.7553559    3.6591575   -0.9469069
H   -1.3385830    3.1426194   -1.6979675
C   -2.5425425    1.4679376   -0.0000000
C   -2.7912454    2.4837361    0.9469069
H   -2.0522967    2.7305566    1.6979675
C   -4.0026060    3.1803631    0.9448281
H   -4.1812768    3.9551926    1.6789256
C   -4.9835492    2.8772535   -0.0000000
H   -5.9208187    3.4183862   -0.0000000
C   -4.7555782    1.8761769   -0.9448281
H   -5.5159357    1.6434956   -1.6789256
C   -3.5466013    1.1754214   -0.9469069
H   -3.3908798    0.4120628   -1.6979675
C   -2.5425425   -1.4679376   -0.0000000
C   -3.5466013   -1.1754214    0.9469069
H   -3.3908798   -0.4120628    1.6979675
C   -4.7555782   -1.8761769    0.9448281
H   -5.5159357   -1.6434956    1.6789256
C   -4.9835492   -2.8772535   -0.0000000
H   -5.9208187   -3.4183862   -0.0000000
C   -4.0026060   -3.1803631   -0.9448281
H   -4.1812768   -3.9551926   -1.6789256
C   -2.7912454   -2.4837361   -0.9469069
H   -2.0522967   -2.7305566   -1.6979675
C   -0.0000000   -2.9358751   -0.0000000
C    0.7553559   -3.6591575   -0.9469069
H    1.3385830   -3.1426194   -1.6979675
C    0.7529723   -5.0565400   -0.9448281
H    1.3346589   -5.5986882   -1.6789256
C   -0.0000000   -5.7545070   -0.0000000
H   -0.0000000   -6.8367725   -0.0000000
C   -0.7529723   -5.0565400    0.9448281
H   -1.3346589   -5.5986882    1.6789256
C   -0.7553559   -3.6591575    0.9469069
H   -1.3385830   -3.1426194    1.6979675
