18

C   -1.2210404    0.7553021   -0.1553766
C   -1.2210404   -0.7553021   -0.1553766
C   -0.0000000   -1.4582138   -0.7331184
C    0.0000000    1.4582138   -0.7331184
C    1.2210404    0.7553021   -0.1553766
C    1.2210404   -0.7553021   -0.1553766
C    0.7653662   -0.0000000    1.0928517
C   -0.7653662    0.0000000    1.0928517
H   -2.2393136    1.1890163   -0.1789736
H   -2.2393136   -1.1890163   -0.1789736
H   -0.0000000   -1.4510783   -1.8431464
H   -0.0000000   -2.5069769   -0.3680902
H    0.0000000    2.5069769   -0.3680902
H    0.0000000    1.4510783   -1.8431464
H    2.2393136    1.1890163   -0.1789736
H    2.2393136   -1.1890163   -0.1789736
H   -1.7604336    0.0000000    2.0065685
H    1.7604336   -0.0000000    2.0065685
