24

 C    0.3096950   -1.2152850    0.8078650
 C   -0.4038314    0.0104849    1.4284657
 C   -0.0123584   -1.2966198   -0.6981868
 C    0.0123584    1.2966198    0.6981868
 C    0.4038314   -0.0104849   -1.4284657
 C   -0.3096950    1.2152850   -0.8078650
 C   -0.1110614   -2.5249544    1.4921631
Br    0.0266412    0.2159185    3.3174597
 H   -1.1051416   -1.4579331   -0.8371717
 H    0.5266051   -2.1592940   -1.1480301
 H    1.1051416    1.4579331    0.8371717
 H   -0.5266051    2.1592940    1.1480301
Br   -0.0266412   -0.2159185   -3.3174597
 H    1.5057776    0.1150718   -1.3372896
 H   -1.4095914    1.0947237   -0.9309194
 C    0.1110614    2.5249544   -1.4921631
 H    1.2064078    2.6844917   -1.3939519
 H   -0.4172626    3.3845514   -1.0272467
 H   -0.1526218    2.5150439   -2.5694391
 H    1.4095914   -1.0947237    0.9309194
 H   -1.5057776   -0.1150718    1.3372896
 H   -1.2064078   -2.6844917    1.3939519
 H    0.1526218   -2.5150439    2.5694391
 H    0.4172626   -3.3845514    1.0272467
