100

H 0.0000000000000000 15.9181126045488117 0.0000000000000000
H 0.0000000000000000 15.8867018454706841 0.9995065603657315
H 0.0000000000000000 15.7925935321521695 1.9950685249688118
H 0.0000000000000000 15.6361590671119384 2.9827568655639491
H 0.0000000000000000 15.4180158257153952 3.9586736275026970
H 0.0000000000000000 15.1390247196761649 4.9189673131796390
H 0.0000000000000000 14.8002867994308733 5.8598480821338654
H 0.0000000000000000 14.4031389087960928 6.7776027078178478
H 0.0000000000000000 13.9491484090565478 7.6686092320062151
H 0.0000000000000000 13.4401069933061752 8.5293512590101610
H 0.0000000000000000 12.8780236154540439 9.3564318332847218
H 0.0000000000000000 12.2651165618010669 10.1465868456604120
H 0.0000000000000000 11.6038046964774164 10.8966979152908721
H 0.0000000000000000 10.8966979152908667 11.6038046964774200
H 0.0000000000000000 10.1465868456604067 12.2651165618010705
H 0.0000000000000000 9.3564318332847183 12.8780236154540475
H 0.0000000000000000 8.5293512590101557 13.4401069933061788
H 0.0000000000000000 7.6686092320062089 13.9491484090565514
H 0.0000000000000000 6.7776027078178434 14.4031389087960946
H 0.0000000000000000 5.8598480821338637 14.8002867994308751
H 0.0000000000000000 4.9189673131796399 15.1390247196761649
H 0.0000000000000000 3.9586736275026997 15.4180158257153952
H 0.0000000000000000 2.9827568655639540 15.6361590671119366
H 0.0000000000000000 1.9950685249688154 15.7925935321521678
H 0.0000000000000000 0.9995065603657375 15.8867018454706841
H 0.0000000000000000 0.0000000000000080 15.9181126045488117
H 0.0000000000000000 -0.9995065603657214 15.8867018454706841
H 0.0000000000000000 -1.9950685249687994 15.7925935321521695
H 0.0000000000000000 -2.9827568655639354 15.6361590671119401
H 0.0000000000000000 -3.9586736275026841 15.4180158257153987
H 0.0000000000000000 -4.9189673131796257 15.1390247196761702
H 0.0000000000000000 -5.8598480821338486 14.8002867994308804
H 0.0000000000000000 -6.7776027078178291 14.4031389087961017
H 0.0000000000000000 -7.6686092320061983 13.9491484090565567
H 0.0000000000000000 -8.5293512590101379 13.4401069933061894
H 0.0000000000000000 -9.3564318332847023 12.8780236154540582
H 0.0000000000000000 -10.1465868456603872 12.2651165618010864
H 0.0000000000000000 -10.8966979152908490 11.6038046964774360
H 0.0000000000000000 -11.6038046964773951 10.8966979152908934
H 0.0000000000000000 -12.2651165618010509 10.1465868456604333
H 0.0000000000000000 -12.8780236154540280 9.3564318332847449
H 0.0000000000000000 -13.4401069933061574 8.5293512590101894
H 0.0000000000000000 -13.9491484090565319 7.6686092320062444
H 0.0000000000000000 -14.4031389087960768 6.7776027078178833
H 0.0000000000000000 -14.8002867994308591 5.8598480821339010
H 0.0000000000000000 -15.1390247196761560 4.9189673131796745
H 0.0000000000000000 -15.4180158257153845 3.9586736275027383
H 0.0000000000000000 -15.6361590671119295 2.9827568655639900
H 0.0000000000000000 -15.7925935321521624 1.9950685249688582
H 0.0000000000000000 -15.8867018454706805 0.9995065603657772
H 0.0000000000000000 -15.9181126045488117 0.0000000000000514
H 0.0000000000000000 -15.8867018454706876 -0.9995065603656816
H 0.0000000000000000 -15.7925935321521749 -1.9950685249687632
H 0.0000000000000000 -15.6361590671119473 -2.9827568655638959
H 0.0000000000000000 -15.4180158257154094 -3.9586736275026455
H 0.0000000000000000 -15.1390247196761845 -4.9189673131795839
H 0.0000000000000000 -14.8002867994308946 -5.8598480821338113
H 0.0000000000000000 -14.4031389087961177 -6.7776027078177963
H 0.0000000000000000 -13.9491484090565780 -7.6686092320061601
H 0.0000000000000000 -13.4401069933062089 -8.5293512590101077
H 0.0000000000000000 -12.8780236154540848 -9.3564318332846668
H 0.0000000000000000 -12.2651165618011095 -10.1465868456603605
H 0.0000000000000000 -11.6038046964774662 -10.8966979152908188
H 0.0000000000000000 -10.8966979152909200 -11.6038046964773702
H 0.0000000000000000 -10.1465868456604618 -12.2651165618010261
H 0.0000000000000000 -9.3564318332847787 -12.8780236154540013
H 0.0000000000000000 -8.5293512590102232 -13.4401069933061343
H 0.0000000000000000 -7.6686092320062764 -13.9491484090565141
H 0.0000000000000000 -6.7776027078179153 -14.4031389087960608
H 0.0000000000000000 -5.8598480821339418 -14.8002867994308449
H 0.0000000000000000 -4.9189673131797100 -15.1390247196761454
H 0.0000000000000000 -3.9586736275027734 -15.4180158257153757
H 0.0000000000000000 -2.9827568655640326 -15.6361590671119224
H 0.0000000000000000 -1.9950685249688873 -15.7925935321521589
H 0.0000000000000000 -0.9995065603657993 -15.8867018454706805
H 0.0000000000000000 -0.0000000000000595 -15.9181126045488117
H 0.0000000000000000 0.9995065603656665 -15.8867018454706876
H 0.0000000000000000 1.9950685249687552 -15.7925935321521766
H 0.0000000000000000 2.9827568655639021 -15.6361590671119473
H 0.0000000000000000 3.9586736275026579 -15.4180158257154059
H 0.0000000000000000 4.9189673131796106 -15.1390247196761756
H 0.0000000000000000 5.8598480821338441 -14.8002867994308822
H 0.0000000000000000 6.7776027078178336 -14.4031389087960999
H 0.0000000000000000 7.6686092320061965 -13.9491484090565585
H 0.0000000000000000 8.5293512590101486 -13.4401069933061841
H 0.0000000000000000 9.3564318332847165 -12.8780236154540475
H 0.0000000000000000 10.1465868456604138 -12.2651165618010651
H 0.0000000000000000 10.8966979152908792 -11.6038046964774075
H 0.0000000000000000 11.6038046964774324 -10.8966979152908525
H 0.0000000000000000 12.2651165618010882 -10.1465868456603854
H 0.0000000000000000 12.8780236154540599 -9.3564318332847005
H 0.0000000000000000 13.4401069933061947 -8.5293512590101308
H 0.0000000000000000 13.9491484090565674 -7.6686092320061778
H 0.0000000000000000 14.4031389087961159 -6.7776027078178016
H 0.0000000000000000 14.8002867994308964 -5.8598480821338104
H 0.0000000000000000 15.1390247196761862 -4.9189673131795759
H 0.0000000000000000 15.4180158257154112 -3.9586736275026371
H 0.0000000000000000 15.6361590671119508 -2.9827568655638808
H 0.0000000000000000 15.7925935321521784 -1.9950685249687341
H 0.0000000000000000 15.8867018454706894 -0.9995065603656451
