8

I   -0.0000000    0.0000000    0.0000000
F   -0.0000000   -0.0000000    2.0240014
F    0.0000000    0.0000000   -2.0240014
F    1.6374467    1.1896747    0.0000000
F    1.6374467   -1.1896747    0.0000000
F   -0.6254490   -1.9249341    0.0000000
F   -0.6254490    1.9249341    0.0000000
F   -2.0239955    0.0000000    0.0000000
