26

C   -0.0000000   -1.2138777    2.8131721
C   -0.0000000   -1.2247845    1.4103571
C   -0.0000000    0.0000000    0.7052977
C   -0.0000000    0.0000000    3.5075065
C    0.0000000    1.2138777    2.8131721
C    0.0000000    1.2247845    1.4103571
C    0.0000000   -0.0000000   -0.7052977
C    0.0000000    1.2247845   -1.4103571
C    0.0000000    2.4346425   -0.6995343
C    0.0000000    2.4346425    0.6995343
H   -0.0000000   -2.1420277    3.3721799
C   -0.0000000   -2.4346425    0.6995343
H   -0.0000000    0.0000000    4.5898957
H    0.0000000    2.1420277    3.3721799
C   -0.0000000   -1.2247845   -1.4103571
H    0.0000000    3.3816993    1.2259371
C    0.0000000    1.2138777   -2.8131721
C   -0.0000000   -1.2138777   -2.8131721
C    0.0000000   -0.0000000   -3.5075065
C   -0.0000000   -2.4346425   -0.6995343
H    0.0000000    3.3816993   -1.2259371
H   -0.0000000   -3.3816993    1.2259371
H    0.0000000    2.1420277   -3.3721799
H   -0.0000000   -2.1420277   -3.3721799
H    0.0000000   -0.0000000   -4.5898957
H   -0.0000000   -3.3816993   -1.2259371
