11

N   -0.0000000   -1.3644574    0.0000000
C    1.1876996   -0.7009823    0.0000000
C   -1.1876996   -0.7009823   -0.0000000
C    1.2084718    0.6964270    0.0000000
C    0.0000000    1.3969286   -0.0000000
C   -1.2084718    0.6964270   -0.0000000
H    2.1152126   -1.2577672    0.0000000
H   -2.1152126   -1.2577672   -0.0000000
H    2.1502421    1.2297774    0.0000000
H    0.0000000    2.4792588   -0.0000000
H   -2.1502421    1.2297774   -0.0000000
