8

N    1.4807251    1.4807251    0.0000000
S    1.2727246   -0.0000000    0.9627026
S    0.0000000    1.2727246   -0.9627026
N    1.4807251   -1.4807251    0.0000000
N   -1.4807251    1.4807251    0.0000000
S   -0.0000000   -1.2727246   -0.9627026
S   -1.2727246    0.0000000    0.9627026
N   -1.4807251   -1.4807251    0.0000000
