16

C   -0.2542152   -0.1740735    1.9460085
C   -0.2011027    0.5008760    0.5900808
C   -0.2011027   -0.5008760   -0.5900808
C   -0.2542152    0.1740735   -1.9460085
O   -0.2983105    0.5708811    3.0709433
O   -0.2670220   -1.3917975    2.0434525
O   -0.2670220    1.3917975   -2.0434525
O   -0.2983105   -0.5708811   -3.0709433
O    0.9525468    1.3015891    0.5213146
H   -1.1200075    1.1275558    0.4926900
H   -0.2999003    1.5377559    3.0413607
H   -0.2999003   -1.5377559   -3.0413607
H    0.6992594    2.2117548    0.8266421
O    0.9525468   -1.3015891   -0.5213146
H   -1.1200075   -1.1275558   -0.4926900
H    0.6992594   -2.2117548   -0.8266421
