13

C   -0.3658484   -1.1198527   -0.1635852
C    1.0229432   -0.6938235    0.2762320
C    1.0229432    0.6938235   -0.2762320
C   -0.3658484    1.1198527    0.1635852
O   -1.2175367   -0.0000000   -0.0000000
H   -0.7128155   -1.9982078    0.4205068
H   -0.3544272   -1.3805101   -1.2461288
H    1.8440487   -1.3511113   -0.0805835
H    1.0562030   -0.6391477    1.3894121
H    1.0562030    0.6391477   -1.3894121
H    1.8440487    1.3511113    0.0805835
H   -0.7128155    1.9982078   -0.4205068
H   -0.3544272    1.3805101    1.2461288
