34

C   -0.0000000    0.0000000    0.0000000
C    0.7487674   -1.2969032    0.0000000
C    1.5951851   -1.6212833   -1.0699272
H    1.7122947   -0.9377148   -1.9018710
C    2.2936111   -2.8328488   -1.0685990
H    2.9461647   -3.0816818   -1.8954324
C    2.1495155   -3.7230701    0.0000000
H    2.6906744   -4.6603848    0.0000000
C    1.3065135   -3.4027499    1.0685990
H    1.1957323   -4.0922944    1.8954324
C    0.6064799   -2.1921125    1.0699272
H   -0.0440626   -1.9517481    1.9018710
C    0.7487674    1.2969032    0.0000000
C    0.6064799    2.1921125   -1.0699272
H   -0.0440626    1.9517481   -1.9018710
C    1.3065135    3.4027499   -1.0685990
H    1.1957323    4.0922944   -1.8954324
C    2.1495155    3.7230701    0.0000000
H    2.6906744    4.6603848    0.0000000
C    2.2936111    2.8328488    1.0685990
H    2.9461647    3.0816818    1.8954324
C    1.5951851    1.6212833    1.0699272
H    1.7122947    0.9377148    1.9018710
C   -1.4975349    0.0000000    0.0000000
C   -2.2016651   -0.5708292   -1.0699272
H   -1.6682322   -1.0140334   -1.9018710
C   -3.6001246   -0.5699011   -1.0685990
H   -4.1418971   -1.0106126   -1.8954324
C   -4.2990310    0.0000000    0.0000000
H   -5.3813489    0.0000000    0.0000000
C   -3.6001246    0.5699011    1.0685990
H   -4.1418971    1.0106126    1.8954324
C   -2.2016651    0.5708292    1.0699272
H   -1.6682322    1.0140334    1.9018710
