38

C    0.0000000   -2.6757334    3.4172486
C    0.0000000   -2.3810414    2.0535501
C    0.0000000   -1.0392460    1.5873433
C    0.0000000   -1.6567094    4.3611568
C    0.0000000   -0.3222411    3.9490341
C    0.0000000   -0.0078853    2.5638939
C    0.0000000   -0.6891911    0.1956233
C    0.0000000    0.6891911   -0.1956233
C    0.0000000    1.6761894    0.8157960
C    0.0000000    1.3431090    2.1693762
C    0.0000000    0.7050004    4.9038232
C    0.0000000    2.0383097    4.4989836
C    0.0000000    2.3585336    3.1420074
C    0.0000000   -1.6761894   -0.8157960
C    0.0000000   -1.3431090   -2.1693762
C    0.0000000    0.0078853   -2.5638939
C    0.0000000    1.0392460   -1.5873433
C    0.0000000    0.3222411   -3.9490341
C    0.0000000    1.6567094   -4.3611568
C    0.0000000    2.6757334   -3.4172486
C    0.0000000    2.3810414   -2.0535501
C    0.0000000   -2.3585336   -3.1420074
C    0.0000000   -2.0383097   -4.4989836
C    0.0000000   -0.7050004   -4.9038232
H    0.0000000   -3.7077864    3.7447897
H    0.0000000   -3.2353024    1.4002893
H    0.0000000   -1.9127680    5.4142239
H    0.0000000    2.7272965    0.5863013
H    0.0000000    0.4767587    5.9632275
H    0.0000000    2.8273860    5.2399580
H    0.0000000    3.4030927    2.8532412
H    0.0000000   -2.7272965   -0.5863013
H    0.0000000    1.9127680   -5.4142239
H    0.0000000    3.7077864   -3.7447897
H    0.0000000    3.2353024   -1.4002893
H    0.0000000   -3.4030927   -2.8532412
H    0.0000000   -2.8273860   -5.2399580
H    0.0000000   -0.4767587   -5.9632275
